cases/240busWECC_2018_PSS33.raw
0,   100.00,  32, 0, 1, 60.00     / PSS(R)E 32 RAW created by rawd32  THU, OCT 07 2021  18:18
THIS IS A REDUCED WECC 240-BUS POWER SYSTEM MODEL REFLECTING
REFERENCE: H. YUAN, R. S. BISWAS, J. TAN AND Y. ZHANG, "DEVE
  1001,'FOURCORN1   ', 500.0000,1,   1,   3,   1,1.03399,   5.8113
  1002,'FOURCORN2   ', 345.0000,1,   1,   3,   1,1.01400,   8.6085
  1003,'FOURCORN3   ', 230.0000,1,   1,  10,   1,0.97318,  -0.0520
  1004,'SAN JUAN    ', 345.0000,1,   1,  10,   1,1.03000,  19.0548
  1032,'FCNGN4CC    ',  20.0000,2,   1,  10,   1,1.01391,   9.1903
  1034,'SJUAN G4    ',  20.0000,2,   1,  10,   1,1.03340,  20.6726
  1101,'CORONADO1   ', 500.0000,1,   1,   3,   1,1.01000, -13.3725
  1102,'CHOLLA      ', 345.0000,1,   1,   3,   1,0.99460,  -4.5618
  1131,'CORONADO2   ',  20.0000,2,   1,   3,   1,1.00946, -12.6436
  1201,'MOENKOPI    ', 500.0000,1,   1,   3,   1,1.09133,  -6.4159
  1202,'NAVAJO1     ', 500.0000,1,   1,   3,   1,1.08000,  -3.6621
  1232,'NAVAJO2    ',  20.0000,2,   1,   3,   1,1.07990,  -2.8306
  1301,'MEAD        ', 500.0000,1,   1,   3,   1,1.04500,  -9.6705
  1302,'H ALLEN1    ', 500.0000,1,   1,   9,   1,1.02445, -11.4706
  1303,'H ALLEN2    ', 345.0000,1,   1,   9,   1,1.00500, -15.0016
  1331,'HOOVER      ',  20.0000,2,   1,   3,   1,1.04505,  -8.5899
  1333,'H ALLEN3    ',  20.0000,2,   1,   9,   1,1.00792, -13.5461
  1401,'PALOVRDE    ', 500.0000,1,   1,   3,   1,1.03500, -14.5807
  1402,'WESTWING    ', 500.0000,1,   1,   3,   1,1.05894, -20.1561
  1403,'PARKER      ', 230.0000,1,   1,   3,   1,1.03527, -14.2067
  1431,'PALOVRD2    ',  20.0000,2,   1,   3,   1,1.04004, -12.2283
  2000,'MEXICO1      ', 230.0000,1,   4,   7,   1,1.00000, -16.5905
  2030,'MEXICO2      ',  20.0000,2,   4,   7,   1,1.00135, -15.8873
  2100,'IMPERIAL1    ', 230.0000,1,   2,   2,   1,1.03500, -12.2656
  2130,'IMPERIAL2    ',  20.0000,2,   2,   2,   1,1.03554, -11.9104
  2201,'MIGUEL1      ', 500.0000,1,   2,   2,   1,0.99374, -26.3342
  2202,'MIGUEL2      ', 230.0000,1,   2,   2,   1,0.99066, -27.5240
  2203,'MISSION1     ', 230.0000,1,   2,   2,   1,1.00500, -27.7515
  2233,'MISSION2    ',  20.0000,2,   2,   2,   1,1.00686, -27.4704
  2301,'IMPRLVLY1    ', 500.0000,1,   2,   2,   1,1.03559, -14.7893
  2302,'IMPRLVLY2    ', 230.0000,1,   2,   2,   1,1.03500, -13.6975
  2332,'IMPRLVLY3    ',  20.0000,2,   2,   2,   1,1.03520, -13.4627
  2400,'DEVERS      ', 500.0000,1,   2,   2,   1,1.02954, -19.6003
  2401,'LUGO1        ', 500.0000,1,   2,   2,   1,1.05004, -13.5286
  2402,'MIRALOMA1    ', 500.0000,1,   2,   2,   1,1.03177, -17.8347
  2403,'VALLEY1      ', 500.0000,1,   2,   2,   1,1.02709, -22.2149
  2404,'VINCENT1     ', 500.0000,1,   2,   2,   1,1.03917,  -9.7791
  2405,'SYLMAR S    ', 230.0000,1,   2,   2,   1,1.01146, -10.8802
  2406,'EAGLROCK    ', 230.0000,1,   2,   2,   1,1.00777, -14.8009
  2407,'LITEHIPE    ', 230.0000,1,   2,   2,   1,0.97489, -20.7301
  2408,'MESA CAL1    ', 230.0000,1,   2,   2,   1,1.00900,  -9.0120
  2409,'MIRALOMA2    ', 230.0000,1,   2,   2,   1,1.02000, -18.6081
  2410,'PARDEE      ', 230.0000,1,   2,   2,   1,1.00710, -14.5328
  2411,'VINCENT2     ', 230.0000,1,   2,   2,   1,1.02033, -11.2625
  2431,'LUGO2        ',  20.0000,2,   2,   2,   1,1.05000, -13.5027
  2434,'VINCENT3     ',  20.0000,2,   2,   2,   1,1.02000, -11.2350
  2438,'MESA CAL2    ',  20.0000,2,   2,   2,   1,1.00981,  -7.5880
  2439,'MIRALOMA3    ',  20.0000,2,   2,   2,   1,1.01976, -18.5530
  2501,'SERRANO1     ', 500.0000,1,   2,   2,   1,1.02695, -20.1000
  2502,'SERRANO2     ', 230.0000,1,   2,   2,   1,1.02322, -21.4348
  2503,'S.ONOFRE1    ', 230.0000,1,   2,   2,   1,1.00900, -23.3962
  2533,'S.ONOFRE2    ',  20.0000,2,   2,   2,   1,1.00959, -22.8621
  2600,'ADELANTO    ', 500.0000,1,   2,   2,   1,1.05580,  -9.1987
  2601,'RINALDI1     ', 500.0000,1,   2,   2,   1,1.04795,  -9.6491
  2602,'STA E1       ', 500.0000,1,   2,   2,   1,1.02252,  -9.2670
  2603,'VICTORVL1    ', 500.0000,1,   2,   2,   1,1.05658,  -9.8579
  2604,'INTERMT     ', 345.0000,1,   2,   2,   1,1.03000,  -2.9120
  2605,'STA B1      ', 287.0000,1,   2,   2,   1,1.02096,  -7.0745
  2606,'STA B2      ', 287.0000,1,   2,   2,   1,1.02096,  -7.0745
  2607,'VICTORVL2    ', 287.0000,1,   2,   2,   1,1.04734,  -8.9281
  2608,'CASTAIC     ', 230.0000,1,   2,   2,   1,1.01500,  -9.2715
  2609,'GLENDAL     ', 230.0000,1,   2,   2,   1,0.99972,  -7.5533
  2610,'HAYNES      ', 230.0000,1,   2,   2,   1,1.00400,   6.6260
  2611,'OLIVE1       ', 230.0000,1,   2,   2,   1,1.01500,  -9.4645
  2612,'RINALDI2     ', 230.0000,1,   2,   2,   1,1.01357,  -9.8305
  2613,'RIVER       ', 230.0000,1,   2,   2,   1,0.99477,  -4.0561
  2614,'STA BLD     ', 230.0000,1,   2,   2,   1,1.00216,  -5.6331
  2615,'STA E2       ', 230.0000,1,   2,   2,   1,1.00540,  -8.9805
  2616,'STA F       ', 230.0000,1,   2,   2,   1,0.99670,  -4.3900
  2617,'STA G       ', 230.0000,1,   2,   2,   1,0.99770,  -6.1197
  2618,'STA J       ', 230.0000,1,   2,   2,   1,1.01112, -10.8280
  2619,'SYLMARLA    ', 230.0000,1,   2,   2,   1,1.01253,  -9.5268
  2620,'VALLEY2      ', 230.0000,1,   2,   2,   1,1.00929,  -9.8876
  2621,'STA B       ', 138.0000,1,   2,   2,   1,1.01278,  -6.7373
  2630,'HAYNES3G    ',  20.0000,2,   2,   2,   1,1.00486,   7.2740
  2631,'OLIVE2       ',  20.0000,2,   2,   2,   1,1.01516,  -9.4000
  2634,'INTERM1G    ',  20.0000,2,   2,   2,   1,1.02989,  -2.4969
  2637,'OWENS G     ',  20.0000,2,   2,   2,   1,1.01377,  -9.8073
  2638,'CASTAI4G    ',  20.0000,2,   2,   2,   1,1.01504,  -9.2159
  2901,'ELDORADO    ', 500.0000,1,   2,   2,   1,1.10737,  -9.8160
  2902,'MOHAVE      ', 500.0000,1,   2,   2,   1,1.11740, -11.0192
  3101,'EMBRCDRD    ', 230.0000,1,   2,   2,   1,0.98132,  -7.7343
  3102,'MARTIN1      ', 230.0000,1,   2,   2,   1,0.98603,  -6.5912
  3103,'SANMATEO1    ', 230.0000,1,   2,   2,   1,0.99272,  -4.4628
  3104,'MARTIN2      ', 115.0000,1,   2,   2,   1,0.98581, -11.4526
  3105,'POTRERO1     ', 115.0000,1,   2,   2,   1,1.00000, -11.4633
  3133,'SANMATEO2    ',  20.0000,2,   2,   2,   1,0.99266,  -4.4538
  3135,'POTRERO2     ',  20.0000,2,   2,   2,   1,1.00043, -11.4003
  3201,'C.COSTA     ', 230.0000,1,   2,   2,   1,1.00362,  -4.5328
  3202,'MORAGA      ', 230.0000,1,   2,   2,   1,1.00231,  -4.0872
  3203,'NEWARK      ', 230.0000,1,   2,   2,   1,1.00056,  -4.1818
  3204,'PITSBURG1    ', 230.0000,1,   2,   2,   1,1.01000,   0.1816
  3205,'SOBRANTE    ', 230.0000,1,   2,   2,   1,1.00082,  -2.4809
  3234,'PITSBURG2    ',  20.0000,2,   2,   2,   1,1.01207,   1.3010
  3301,'METCALF1     ', 500.0000,1,   2,   2,   1,1.01128,  -4.6529
  3302,'JEFFERSN    ', 230.0000,1,   2,   2,   1,0.98430,  -7.6151
  3303,'METCALF2     ', 230.0000,1,   2,   2,   1,1.00000,  -5.4140
  3304,'MONTAVIS    ', 230.0000,1,   2,   2,   1,0.98986,  -6.9850
  3305,'RAVENSWD    ', 230.0000,1,   2,   2,   1,0.99495,  -4.7480
  3333,'METCALF3     ',  20.0000,2,   2,   2,   1,1.00081,  -5.1819
  3401,'GREGG       ', 230.0000,1,   2,   2,   1,0.96650, -13.7548
  3402,'HELMS PP1    ', 230.0000,1,   2,   2,   1,0.96864, -13.7684
  3403,'MC CALL1     ', 230.0000,1,   2,   2,   1,1.00000,  -1.4319
  3404,'PANOCHE     ', 230.0000,1,   2,   2,   1,0.98832,  -8.5596
  3405,'WILSON      ', 230.0000,1,   2,   2,   1,0.96184, -15.4944
  3432,'HELMS PP2    ',  20.0000,1,   2,   2,   1,0.96864, -13.7684
  3433,'MC CALL2     ',  20.0000,2,   2,   2,   1,1.00024,  -1.0807
  3501,'FULTON1      ', 230.0000,1,   2,   2,   1,1.00000,   1.6602
  3531,'FULTON2      ',  20.0000,2,   2,   2,   1,1.00036,   1.9721
  3601,'HUMBOLDT1    ', 115.0000,1,   2,   2,   1,1.01500,  -3.8260
  3631,'HUMBOLDT2    ',  20.0000,2,   2,   2,   1,1.01477,  -3.7990
  3701,'SUMMIT1      ', 115.0000,1,   1,   9,   1,1.00000, -20.5156
  3731,'SUMMIT2      ',  20.0000,2,   1,   9,   1,0.99905, -20.4520
  3801,'DIABLO      ', 500.0000,1,   2,   2,   1,1.04900,   0.3700
  3802,'GATES1       ', 500.0000,1,   2,   2,   1,1.03708,  -5.6163
  3803,'MIDWAY1_1      ', 500.0000,1,   2,   2,   1,1.04618,  -6.9766
  3804,'GATES2       ', 230.0000,1,   2,   2,   1,1.00229,  -7.0079
  3805,'MIDWAY2_1      ', 230.0000,1,   2,   2,   1,1.03500,  -6.5194
  3806,'MORROBAY1    ', 230.0000,1,   2,   2,   1,1.01900,  -3.3993
  3831,'DIABLO1     ',  20.0000,2,   2,   2,   1,1.04876,   0.9190
  3835,'MIDWAY      ',  20.0000,2,   2,   2,   1,1.03528,  -6.4181
  3836,'MORROBAY2    ',  20.0000,2,   2,   2,   1,1.01896,  -3.2120
  3891,'GATES3      ', 500.0000,1,   2,   2,   1,1.05218,  -9.0965
  3892,'MIDWAY1     ', 500.0000,1,   2,   2,   1,1.03871,  -3.7796
  3893,'MIDWAY2     ', 500.0000,1,   2,   2,   1,1.03351, -12.9899
  3894,'MIDWAY3     ', 500.0000,1,   2,   2,   1,1.03851,  -3.7264
  3895,'MIDWAY4     ', 500.0000,1,   2,   2,   1,1.03371, -13.0107
  3896,'MIDWAY5     ', 500.0000,1,   2,   2,   1,1.03889,  -3.5683
  3897,'MIDWAY6     ', 500.0000,1,   2,   2,   1,1.03562, -12.8489
  3901,'LOSBANOS1    ', 500.0000,1,   2,   2,   1,1.02988,  -5.8997
  3902,'MOSSLAND1    ', 500.0000,1,   2,   2,   1,1.00000,  -2.1708
  3903,'TESLA1       ', 500.0000,1,   2,   2,   1,1.03456,  -5.2015
  3904,'VACA-DIX1    ', 500.0000,1,   2,   2,   1,1.03403,  -5.3733
  3905,'TABLE MT1    ', 500.0000,1,   2,   2,   1,1.04895,  -6.0219
  3906,'ROUND MT1    ', 500.0000,1,   2,   2,   1,1.06984,  -5.3537
  3907,'BELLOTA     ', 230.0000,1,   2,   2,   1,0.96922, -13.6487
  3908,'BRIGHTON    ', 230.0000,1,   2,   2,   1,0.97394, -16.4948
  3909,'COLGATE     ', 230.0000,1,   2,   2,   1,0.98572, -17.6454
  3910,'CORTINA     ', 230.0000,1,   2,   2,   1,0.97956, -12.9124
  3911,'COTWDPGE1    ', 230.0000,1,   2,   2,   1,1.04300,  -4.0197
  3912,'GLENN       ', 230.0000,1,   2,   2,   1,1.02450, -10.1033
  3913,'GOLDHILL    ', 230.0000,1,   2,   2,   1,0.98679, -12.6000
  3914,'IGNACIO     ', 230.0000,1,   2,   2,   1,0.99136,  -2.0960
  3915,'LAKEVILE    ', 230.0000,1,   2,   2,   1,0.99702,  -3.3388
  3916,'LOGAN CR    ', 230.0000,1,   2,   2,   1,1.02215,  -9.8614
  3917,'LOSBANOS2    ', 230.0000,1,   2,   2,   1,1.01009,  -8.2253
  3918,'MOSSLAND2    ', 230.0000,1,   2,   2,   1,0.99384,  -5.9442
  3919,'PALERMO     ', 230.0000,1,   2,   2,   1,0.99539, -16.4998
  3920,'RIO OSO1     ', 230.0000,1,   2,   2,   1,0.98814, -16.1734
  3921,'ROUND MT2    ', 230.0000,1,   2,   2,   1,1.07000,   1.6366
  3922,'TABLE MT2    ', 230.0000,1,   2,   2,   1,1.01524, -12.6023
  3923,'TESLA2       ', 230.0000,1,   2,   2,   1,1.01759,  -1.0160
  3924,'VACA-DIX2    ', 230.0000,1,   2,   2,   1,1.00948,  -5.3998
  3925,'COTWDPGE2    ', 115.0000,1,   2,   2,   1,1.02988,  -3.9576
  3926,'RIO OSO2     ', 115.0000,1,   2,   2,   1,0.99349, -19.4110
  3931,'ROUND MT3    ',  20.0000,2,   2,   2,   1,1.07066,   1.9984
  3932,'MOSSLAND3    ',  20.0000,2,   2,   2,   1,0.99877,  -1.7821
  3933,'TESLA3       ',  20.0000,3,   2,   2,   1,1.02000,   0.0000
  4001,'MALIN1_1       ', 500.0000,1,   3,  11,   1,1.08000,  -5.7696
  4002,'SUMMER L    ', 500.0000,1,   3,  11,   1,1.11375,  -3.4900
  4003,'BURNS       ', 500.0000,1,   3,  11,   1,1.12756,   4.4517
  4004,'GRIZZLY     ', 500.0000,1,   3,  11,   1,1.10126,  -5.5261
  4005,'JOHN DAY1    ', 500.0000,1,   3,  11,   1,1.08000,  -5.1329
  4006,'BIG EDDY1    ', 500.0000,1,   3,  11,   1,1.07595,  -8.7506
  4007,'CELILOCA    ', 500.0000,1,   3,  11,   1,1.07595,  -8.9237
  4008,'MALIN2       ', 345.0000,1,   3,  11,   1,1.08103,  -7.9580
  4009,'BIG EDDY2    ', 230.0000,1,   3,  11,   1,1.08000, -11.2236
  4010,'CELILO      ', 230.0000,1,   3,  11,   1,1.07871, -11.4644
  4031,'MALIN3       ',  20.0000,2,   3,  11,   1,1.07627,  -5.3863
  4035,'JOHN DAY2    ',  20.0000,2,   3,  11,   1,1.07770,  -4.5702
  4039,'DALLES21    ',  20.0000,2,   3,  13,   1,1.08393, -10.6741
  4090,'MALIN1      ', 500.0000,1,   3,  11,   1,1.11038,  -3.8209
  4091,'GRIZZLY1    ', 500.0000,1,   3,  11,   1,1.11043,  -4.6861
  4092,'GRIZZLY2    ', 500.0000,1,   3,  11,   1,1.09408,  -5.7569
  4093,'GRIZZLY3    ', 500.0000,1,   3,  11,   1,1.09231,  -5.7897
  4094,'GRIZZLY4    ', 500.0000,1,   3,  11,   1,1.10586,  -5.5413
  4095,'GRIZZLY5    ', 500.0000,1,   3,  11,   1,1.09242,  -5.7703
  4096,'GRIZZLY6    ', 500.0000,1,   3,  11,   1,1.09043,  -5.8055
  4097,'GRIZZLY7    ', 500.0000,1,   3,  11,   1,1.10561,  -5.5393
  4101,'COULEE1      ', 500.0000,1,   3,  13,   1,1.12800,  11.4851
  4102,'HANFORD1     ', 500.0000,1,   3,  13,   1,1.09600,   4.2163
  4103,'BELL1        ', 500.0000,1,   3,  13,   1,1.08071,  -3.5169
  4104,'BELL2        ', 230.0000,1,   3,  13,   1,1.05171, -14.4888
  4131,'COULEE2      ',  20.0000,2,   3,  13,   1,1.13099,  13.3771
  4132,'HANFORD2     ',  20.0000,2,   3,  13,   1,1.09654,   5.8519
  4201,'NORTH       ', 500.0000,1,   3,  13,   1,1.12000,   4.3048
  4202,'WCASCADE1    ', 500.0000,1,   3,  13,   1,1.06000,  -8.0406
  4203,'WILLAMET    ', 500.0000,1,   3,  13,   1,1.02930, -11.2952
  4204,'MERIDIAN    ', 500.0000,1,   3,  13,   1,1.06189,  -7.5607
  4231,'NORTH G3    ',  20.0000,2,   3,  13,   1,1.12632,   5.2290
  4232,'WCASCADE2    ',  20.0000,2,   3,  13,   1,1.05994,  -7.8143
  5001,'CANADA      ', 500.0000,1,   3,   4,   1,1.05000,  -5.5435
  5002,'CANALB      ', 500.0000,1,   3,   1,   1,1.05500,  -6.7556
  5003,'CA230TO     ', 230.0000,1,   3,   1,   1,1.05368, -10.2322
  5004,'CA230       ', 230.0000,1,   3,   4,   1,1.08674, -12.4058
  5031,'CANAD G1    ',  20.0000,2,   3,   4,   1,1.05458,  -3.7846
  5032,'CMAIN GM    ',  20.0000,2,   3,   1,   1,1.06140,  -4.3394
  6101,'MIDPOINT1    ', 500.0000,1,   3,   6,   1,1.06596,  14.4274
  6102,'MIDPOINT2    ', 345.0000,1,   3,   6,   1,1.03000,  17.2456
  6103,'BORAH1       ', 345.0000,1,   3,   6,   1,1.01352,  15.4873
...
 0 /End of Bus data, Begin Load data
  1002,'1 ',1,   1,   3,     0.000,     0.000,   223.710,     0.000,     0.000,   583.546,   1,1
  1003,'1 ',1,   1,  10,     0.000,     0.000,  2212.664,     0.000,     0.000,  -387.354,   1,1
  1004,'1 ',1,   1,  10,     0.000,     0.000,  1007.718,     0.000,     0.000,    -5.204,   1,1
  1101,'1 ',1,   1,   3,     0.000,     0.000,  4482.541,     0.000,     0.000,   134.344,   1,1
  1102,'1 ',1,   1,   3,     0.000,     0.000,   179.873,     0.000,     0.000,   -23.907,   1,1
  1201,'1 ',1,   1,   3,     0.000,     0.000,   153.984,     0.000,     0.000,     1.711,   1,1
  1202,'1 ',1,   1,   3,     0.000,     0.000,   810.750,     0.000,     0.000,  -246.169,   1,1
  1301,'1 ',1,   1,   3,     0.000,     0.000,  2588.305,     0.000,     0.000,  -323.093,   1,1
  1302,'1 ',1,   1,   9,     0.000,     0.000,    17.088,     0.000,     0.000,    -2.183,   1,1
  1303,'1 ',1,   1,   9,     0.000,     0.000,  6204.116,     0.000,     0.000,  -805.276,   1,1
  1401,'1 ',1,   1,   3,     0.000,     0.000,  6314.529,     0.000,     0.000, -1423.225,   1,1
  1402,'1 ',1,   1,   3,     0.000,     0.000,  5074.202,     0.000,     0.000,   536.538,   1,1
  2000,'1 ',1,   4,   7,     0.000,     0.000,  2207.188,     0.000,     0.000,  -287.916,   1,1
  2100,'1 ',1,   2,   2,     0.000,     0.000,   244.479,     0.000,     0.000,   -46.066,   1,1
  2202,'1 ',1,   2,   2,     0.000,     0.000,  1413.957,     0.000,     0.000,  -249.625,   1,1
  2203,'1 ',1,   2,   2,     0.000,     0.000,  1530.047,     0.000,     0.000,  -247.960,   1,1
  2400,'1 ',1,   2,   2,     0.000,     0.000,   741.606,     0.000,     0.000,   -65.877,   1,1
  2401,'1 ',1,   2,   2,     0.000,     0.000,   756.558,     0.000,     0.000,   -85.945,   1,1
  2402,'1 ',1,   2,   2,     0.000,     0.000,   944.185,     0.000,     0.000,   -69.616,   1,1
  2403,'1 ',1,   2,   2,     0.000,     0.000,   924.912,     0.000,     0.000,   -33.229,   1,1
  2405,'1 ',1,   2,   2,     0.000,     0.000,   734.331,     0.000,     0.000,   -20.175,   1,1
  2406,'1 ',1,   2,   2,     0.000,     0.000,   659.215,     0.000,     0.000,    36.185,   1,1
  2407,'1 ',1,   2,   2,     0.000,     0.000,  1610.419,     0.000,     0.000,    35.064,   1,1
  2408,'1 ',1,   2,   2,     0.000,     0.000,  1554.955,     0.000,     0.000,    64.200,   1,1
  2409,'1 ',1,   2,   2,     0.000,     0.000,  1413.334,     0.000,     0.000,    74.998,   1,1
  2410,'1 ',1,   2,   2,     0.000,     0.000,  1411.456,     0.000,     0.000,   -51.802,   1,1
  2411,'1 ',1,   2,   2,     0.000,     0.000,   959.465,     0.000,     0.000,   -65.677,   1,1
  2502,'1 ',1,   2,   2,     0.000,     0.000,  2087.843,     0.000,     0.000,    79.306,   1,1
  2503,'1 ',1,   2,   2,     0.000,     0.000,  1646.515,     0.000,     0.000,  -178.564,   1,1
  2600,'1 ',1,   2,   2,     0.000,     0.000, -1591.978,     0.000,     0.000,     0.000,   1,1
  2602,'1 ',1,   2,   2,     0.000,     0.000,    87.531,     0.000,     0.000,   -11.190,   1,1
  2604,'1 ',1,   2,   2,     0.000,     0.000,  1791.945,     0.000,     0.000,     0.000,   1,1
  2608,'1 ',1,   2,   2,     0.000,     0.000,    88.030,     0.000,     0.000,   -11.318,   1,1
  2609,'1 ',1,   2,   2,     0.000,     0.000,   120.790,     0.000,     0.000,   -24.191,   1,1
  2610,'1 ',1,   2,   2,     0.000,     0.000,    88.994,     0.000,     0.000,   -11.567,   1,1
  2611,'1 ',1,   2,   2,     0.000,     0.000,    88.030,     0.000,     0.000,   -11.318,   1,1
  2612,'1 ',1,   2,   2,     0.000,     0.000,   106.667,     0.000,     0.000,   -21.743,   1,1
  2613,'1 ',1,   2,   2,     0.000,     0.000,   287.725,     0.000,     0.000,   -58.812,   1,1
  2614,'1 ',1,   2,   2,     0.000,     0.000,   123.152,     0.000,     0.000,   -24.956,   1,1
  2615,'1 ',1,   2,   2,     0.000,     0.000,   718.654,     0.000,     0.000,  -117.014,   1,1
  2616,'1 ',1,   2,   2,     0.000,     0.000,   104.990,     0.000,     0.000,   -21.629,   1,1
  2617,'1 ',1,   2,   2,     0.000,     0.000,   108.473,     0.000,     0.000,   -22.485,   1,1
  2618,'1 ',1,   2,   2,     0.000,     0.000,   784.705,     0.000,     0.000,     5.422,   1,1
  2619,'1 ',1,   2,   2,     0.000,     0.000, -2466.528,     0.000,     0.000,     0.000,   1,1
  2620,'1 ',1,   2,   2,     0.000,     0.000,   181.756,     0.000,     0.000,   -15.454,   1,1
  2621,'1 ',1,   2,   2,     0.000,     0.000,   209.415,     0.000,     0.000,    55.132,   1,1
  3101,'1 ',1,   2,   2,     0.000,     0.000,   313.580,     0.000,     0.000,   -49.549,   1,1
  3102,'1 ',1,   2,   2,     0.000,     0.000,   145.724,     0.000,     0.000,   -23.131,   1,1
  3103,'1 ',1,   2,   2,     0.000,     0.000,   380.419,     0.000,     0.000,   -54.591,   1,1
  3104,'1 ',1,   2,   2,     0.000,     0.000,   283.512,     0.000,     0.000,   -37.304,   1,1
  3105,'1 ',1,   2,   2,     0.000,     0.000,   215.372,     0.000,     0.000,   -44.182,   1,1
  3201,'1 ',1,   2,   2,     0.000,     0.000,   417.176,     0.000,     0.000,   -88.465,   1,1
  3202,'1 ',1,   2,   2,     0.000,     0.000,   528.943,     0.000,     0.000,   -75.520,   1,1
  3203,'1 ',1,   2,   2,     0.000,     0.000,   592.543,     0.000,     0.000,  -143.183,   1,1
  3204,'1 ',1,   2,   2,     0.000,     0.000,   595.949,     0.000,     0.000,   -84.091,   1,1
  3205,'1 ',1,   2,   2,     0.000,     0.000,   492.201,     0.000,     0.000,   -70.216,   1,1
  3302,'1 ',1,   2,   2,     0.000,     0.000,   316.377,     0.000,     0.000,   -80.011,   1,1
  3303,'1 ',1,   2,   2,     0.000,     0.000,   562.870,     0.000,     0.000,  -135.643,   1,1
  3304,'1 ',1,   2,   2,     0.000,     0.000,   485.777,     0.000,     0.000,  -112.963,   1,1
  3305,'1 ',1,   2,   2,     0.000,     0.000,   389.689,     0.000,     0.000,   -55.787,   1,1
  3401,'1 ',1,   2,   2,     0.000,     0.000,   523.259,     0.000,     0.000,  -132.931,   1,1
  3403,'1 ',1,   2,   2,     0.000,     0.000,   464.372,     0.000,     0.000,   -66.225,   1,1
  3404,'1 ',1,   2,   2,     0.000,     0.000,   400.370,     0.000,     0.000,   -57.509,   1,1
  3405,'1 ',1,   2,   2,     0.000,     0.000,   423.026,     0.000,     0.000,   -62.878,   1,1
  3501,'1 ',1,   2,   2,     0.000,     0.000,   562.514,     0.000,     0.000,   -80.114,   1,1
  3601,'1 ',1,   2,   2,     0.000,     0.000,    92.975,     0.000,     0.000,   -12.968,   1,1
  3701,'1 ',1,   1,   9,     0.000,     0.000,   317.051,     0.000,     0.000,   -15.847,   1,1
  3801,'1 ',1,   2,   2,     0.000,     0.000,   164.062,     0.000,     0.000,   -38.776,   1,1
  3804,'1 ',1,   2,   2,     0.000,     0.000,   201.824,     0.000,     0.000,   -50.058,   1,1
  3805,'1 ',1,   2,   2,     0.000,     0.000,   434.251,     0.000,     0.000,  -137.035,   1,1
  3806,'1 ',1,   2,   2,     0.000,     0.000,   255.767,     0.000,     0.000,   -35.854,   1,1
  3902,'1 ',1,   2,   2,     0.000,     0.000,   137.692,     0.000,     0.000,   -34.423,   1,1
  3903,'1 ',1,   2,   2,     0.000,     0.000,   190.745,     0.000,     0.000,   -26.909,   1,1
  3907,'1 ',1,   2,   2,     0.000,     0.000,   430.380,     0.000,     0.000,   -60.984,   1,1
  3908,'1 ',1,   2,   2,     0.000,     0.000,   186.870,     0.000,     0.000,   -23.908,   1,1
  3909,'1 ',1,   2,   2,     0.000,     0.000,   159.388,     0.000,     0.000,   -38.425,   1,1
  3910,'1 ',1,   2,   2,     0.000,     0.000,   228.437,     0.000,     0.000,   -34.143,   1,1
  3911,'1 ',1,   2,   2,     0.000,     0.000,   204.367,     0.000,     0.000,   -40.227,   1,1
  3912,'1 ',1,   2,   2,     0.000,     0.000,   156.919,     0.000,     0.000,     0.570,   1,1
  3913,'1 ',1,   2,   2,     0.000,     0.000,   301.003,     0.000,     0.000,   -40.262,   1,1
  3914,'1 ',1,   2,   2,     0.000,     0.000,   207.245,     0.000,     0.000,   -48.345,   1,1
  3915,'1 ',1,   2,   2,     0.000,     0.000,   230.849,     0.000,     0.000,   -48.836,   1,1
  3916,'1 ',1,   2,   2,     0.000,     0.000,   139.766,     0.000,     0.000,     0.000,   1,1
  3917,'1 ',1,   2,   2,     0.000,     0.000,   214.158,     0.000,     0.000,   -39.517,   1,1
  3918,'1 ',1,   2,   2,     0.000,     0.000,   289.544,     0.000,     0.000,   -68.957,   1,1
  3919,'1 ',1,   2,   2,     0.000,     0.000,   171.670,     0.000,     0.000,   -23.175,   1,1
  3920,'1 ',1,   2,   2,     0.000,     0.000,   158.827,     0.000,     0.000,   -22.302,   1,1
  3921,'1 ',1,   2,   2,     0.000,     0.000,   126.917,     0.000,     0.000,   -27.373,   1,1
  3922,'1 ',1,   2,   2,     0.000,     0.000,   231.814,     0.000,     0.000,   -29.670,   1,1
  3923,'1 ',1,   2,   2,     0.000,     0.000,   353.452,     0.000,     0.000,   -58.418,   1,1
  3924,'1 ',1,   2,   2,     0.000,     0.000,   300.147,     0.000,     0.000,   -42.707,   1,1
  3926,'1 ',1,   2,   2,     0.000,     0.000,   244.214,     0.000,     0.000,   -15.453,   1,1
  4002,'1 ',1,   3,  11,     0.000,     0.000,   154.505,     0.000,     0.000,   -18.455,   1,1
  4004,'1 ',1,   3,  11,     0.000,     0.000,   248.180,     0.000,     0.000,   -29.723,   1,1
  4005,'1 ',1,   3,  11,     0.000,     0.000,   444.550,     0.000,     0.000,  -134.961,   1,1
  4008,'1 ',1,   3,  11,     0.000,     0.000,   265.108,     0.000,     0.000,   -32.154,   1,1
  4009,'1 ',1,   3,  11,     0.000,     0.000,  2045.132,     0.000,     0.000,  -369.852,   1,1
  4010,'1 ',1,   3,  11,     0.000,     0.000,  2904.493,     0.000,     0.000,     0.000,   1,1
  4101,'1 ',1,   3,  13,     0.000,     0.000,   882.117,     0.000,     0.000,  -102.001,   1,1
  4102,'1 ',1,   3,  13,     0.000,     0.000,   438.548,     0.000,     0.000,   -57.162,   1,1
  4103,'1 ',1,   3,  13,     0.000,     0.000,    10.805,     0.000,     0.000,    -1.303,   1,1
  4104,'1 ',1,   3,  13,     0.000,     0.000,  2424.986,     0.000,     0.000,  -303.469,   1,1
  4201,'1 ',1,   3,  13,     0.000,     0.000,  5145.231,     0.000,     0.000,  -367.517,   1,1
  4202,'1 ',1,   3,  13,     0.000,     0.000,  4300.226,     0.000,     0.000,  -529.215,   1,1
  4203,'1 ',1,   3,  13,     0.000,     0.000,  4308.429,     0.000,     0.000,  -552.906,   1,1
  4204,'1 ',1,   3,  13,     0.000,     0.000,   949.629,     0.000,     0.000,  -115.952,   1,1
  5001,'1 ',1,   3,   4,     0.000,     0.000,  7213.383,     0.000,     0.000, -1561.338,   1,1
  5002,'1 ',1,   3,   1,     0.000,     0.000,  8534.582,     0.000,     0.000, -1055.106,   1,1
  5003,'1 ',1,   3,   1,     0.000,     0.000,   589.263,     0.000,     0.000,   -73.624,   1,1
  6102,'1 ',1,   3,   6,     0.000,     0.000,  1022.470,     0.000,     0.000,   325.457,   1,1
  6103,'1 ',1,   3,   6,     0.000,     0.000,   386.454,     0.000,     0.000,   -49.703,   1,1
  6104,'1 ',1,   3,   6,     0.000,     0.000,  1683.648,     0.000,     0.000,  -218.144,   1,1
  6201,'1 ',1,   3,   8,     0.000,     0.000,   194.170,     0.000,     0.000,   -23.903,   1,1
  6202,'1 ',1,   3,   8,     0.000,     0.000,    81.319,     0.000,     0.000,   -11.365,   1,1
  6203,'1 ',1,   3,   8,     0.000,     0.000,   609.243,     0.000,     0.000,  -143.626,   1,1
  6204,'1 ',1,   3,   8,     0.000,     0.000,   667.550,     0.000,     0.000,  -142.578,   1,1
  6205,'1 ',1,   3,   8,     0.000,     0.000,   465.984,     0.000,     0.000,   -78.317,   1,1
  6301,'1 ',1,   3,  14,     0.000,     0.000,   508.649,     0.000,     0.000,   -65.361,   1,1
  6302,'1 ',1,   3,  14,     0.000,     0.000,   588.418,     0.000,     0.000,   -76.334,   1,1
  6303,'1 ',1,   3,  14,     0.000,     0.000,   724.856,     0.000,     0.000,   -91.813,   1,1
  6305,'1 ',1,   3,  14,     0.000,     0.000,    56.823,     0.000,     0.000,   -17.579,   1,1
  6401,'1 ',1,   1,   9,     0.000,     0.000,  1628.390,     0.000,     0.000,  -206.824,   1,1
  6402,'1 ',1,   1,   9,     0.000,     0.000,   270.855,     0.000,     0.000,   -35.135,   1,1
  6403,'1 ',1,   1,   9,     0.000,     0.000,     1.980,     0.000,     0.000,    -0.221,   1,1
  6404,'1 ',1,   1,   9,     0.000,     0.000,    27.498,     0.000,     0.000,    -3.399,   1,1
  6501,'1 ',1,   3,  12,     0.000,     0.000,   193.033,     0.000,     0.000,   -62.491,   1,1
  6502,'1 ',1,   3,  12,     0.000,     0.000,  1539.327,     0.000,     0.000,  -271.901,   1,1
  6503,'1 ',1,   3,  12,     0.000,     0.000,   414.228,     0.000,     0.000,  -127.491,   1,1
  6504,'1 ',1,   3,  12,     0.000,     0.000,   293.725,     0.000,     0.000,   -37.889,   1,1
  6505,'1 ',1,   3,  12,     0.000,     0.000,     6.555,     0.000,     0.000,    -2.076,   1,1
  6507,'1 ',1,   3,  12,     0.000,     0.000,   527.834,     0.000,     0.000,    58.453,   1,1
  6508,'1 ',1,   3,  12,     0.000,     0.000,   128.991,     0.000,     0.000,   -41.365,   1,1
  6509,'1 ',1,   3,  12,     0.000,     0.000,     8.495,     0.000,     0.000,    -2.753,   1,1
  6510,'1 ',1,   3,  12,     0.000,     0.000,  1971.920,     0.000,     0.000,   111.890,   1,1
  7001,'1 ',1,   3,   5,     0.000,     0.000,  6863.645,     0.000,     0.000,  -742.359,   1,1
  7002,'1 ',1,   3,   5,     0.000,     0.000,  2517.078,     0.000,     0.000,   134.018,   1,1
  8003,'1 ',1,   2,   2,     0.000,     0.000,   546.423,     0.000,     0.000,   -66.307,   1,1
  8004,'1 ',1,   2,   2,     0.000,     0.000,  3409.103,     0.000,     0.000,  -444.699,   1,1
  8005,'1 ',1,   2,   2,     0.000,     0.000,  1213.222,     0.000,     0.000,  -161.487,   1,1
 0 /End of Load data, Begin Fixed shunt data
 0 /End of Fixed shunt data, Begin Generator data
  1032,'C ',   712.000,    -2.600,   200.000,  -200.000,1.01400,  1002,   873.000, 0.00000E+0, 2.00000E-1, 0.00000E+0, 0.00000E+0,1.00000,1,  100.0,   873.000,     0.000,   1,1.0000
  1032,'G ',   856.000,    -3.126,   357.000,  -357.000,1.01400,  1002,  1050.000, 0.00000E+0, 2.00000E-1, 0.00000E+0, 0.00000E+0,1.00000,1,  100.0,  1050.000,     0.000,   1,1.0000
  1032,'S ',   520.000,    -1.899,   360.000,  -360.000,1.01400,  1002,   638.000, 0.00000E+0, 2.00000E-1, 0.00000E+0, 0.00000E+0,1.00000,1,  100.0,   638.000,     0.000,   1,1.0000,    ,      ,    ,      ,    ,      ,1, 1.0000
  1034,'C ',  1847.000,   241.393,   500.000,  -500.000,1.03000,  1004,  2100.000, 0.00000E+0, 2.00000E-1, 0.00000E+0, 0.00000E+0,1.00000,1,  100.0,  1944.000,     0.000,   1,1.0000
  1034,'G ',  2565.000,   335.232,   918.000,  -918.000,1.03000,  1004,  2900.000, 0.00000E+0, 2.00000E-1, 0.00000E+0, 0.00000E+0,1.00000,1,  100.0,  2700.000,     0.000,   1,1.0000
  1034,'W ',  1598.000,   208.850,   800.000,  -800.000,1.03000,  1004,  1682.000, 0.00000E+0, 2.00000E-1, 0.00000E+0, 0.00000E+0,1.00000,1,  100.0,  1682.000,     0.000,   1,1.0000,    ,      ,    ,      ,    ,      ,1, 1.0000
  1131,'C ',   530.000,   -18.955,   308.000,  -308.000,1.01000,  1101,  1268.000, 0.00000E+0, 2.00000E-1, 0.00000E+0, 0.00000E+0,1.00000,1,  100.0,  1268.000,     0.000,   1,1.0000
  1131,'G ',  2064.000,   -73.819,  1916.000, -1916.000,1.01000,  1101,  4934.000, 0.00000E+0, 2.00000E-1, 0.00000E+0, 0.00000E+0,1.00000,1,  100.0,  4934.000,     0.000,   1,1.0000
  1232,'C ',  2728.000,     1.290,  1208.000, -1208.000,1.08000,  1202,  4977.000, 0.00000E+0, 2.00000E-1, 0.00000E+0, 0.00000E+0,1.00000,1,  100.0,  4977.000,     0.000,   1,1.0000
  1232,'H ',   657.000,     0.311,   628.000,  -628.000,1.08000,  1202,  1199.000, 0.00000E+0, 2.00000E-1, 0.00000E+0, 0.00000E+0,1.00000,1,  100.0,  1199.000,     0.000,   1,1.0000
  1331,'G ',  1986.000,    23.711,   841.000,  -841.000,1.04500,  1301,  2167.000, 0.00000E+0, 2.00000E-1, 0.00000E+0, 0.00000E+0,1.00000,1,  100.0,  2167.000,     0.000,   1,1.0000
  1331,'H ',  2133.000,    25.466,  1219.000, -1219.000,1.04500,  1301,  2328.000, 0.00000E+0, 2.00000E-1, 0.00000E+0, 0.00000E+0,1.00000,1,  100.0,  2328.000,     0.000,   1,1.0000
  1333,'C ',   218.000,    27.636,   303.000,  -303.000,1.00500,  1303,   418.000, 0.00000E+0, 2.00000E-1, 0.00000E+0, 0.00000E+0,1.00000,1,  100.0,   418.000,     0.000,   1,1.0000
  1333,'G ',  3662.000,   464.233,  2746.000, -2746.000,1.00500,  1303,  7011.000, 0.00000E+0, 2.00000E-1, 0.00000E+0, 0.00000E+0,1.00000,1,  100.0,  7011.000,     0.000,   1,1.0000
  1333,'S ',  1266.000,   160.491,  1300.000, -1300.000,1.00500,  1303,  2423.000, 0.00000E+0, 2.00000E-1, 0.00000E+0, 0.00000E+0,1.00000,1,  100.0,  2423.000,     0.000,   1,1.0000,    ,      ,    ,      ,    ,      ,1, 1.0000
  1431,'G ',  5129.000,   712.638,  3559.000, -3559.000,1.03500,  1401,  9170.000, 0.00000E+0, 2.00000E-1, 0.00000E+0, 0.00000E+0,1.00000,1,  100.0,  9170.000,     0.000,   1,1.0000
  1431,'N ',  2355.000,   327.211,  2057.000, -2057.000,1.03500,  1401,  4210.000, 0.00000E+0, 2.00000E-1, 0.00000E+0, 0.00000E+0,1.00000,1,  100.0,  4210.000,     0.000,   1,1.0000
  1431,'S ',  1353.000,   187.990,  1000.000, -1000.000,1.03500,  1401,  2419.000, 0.00000E+0, 2.00000E-1, 0.00000E+0, 0.00000E+0,1.00000,1,  100.0,  2419.000,     0.000,   1,1.0000,    ,      ,    ,      ,    ,      ,1, 1.0000
  2030,'E ',   605.000,    70.149,   350.000,  -350.000,1.00000,  2000,   699.000, 0.00000E+0, 2.00000E-1, 0.00000E+0, 0.00000E+0,1.00000,1,  100.0,   699.000,     0.000,   1,1.0000
  2030,'G ',  1853.000,   214.853,  1070.000, -1070.000,1.00000,  2000,  2140.000, 0.00000E+0, 2.00000E-1, 0.00000E+0, 0.00000E+0,1.00000,1,  100.0,  2140.000,     0.000,   1,1.0000
  2130,'E ',   573.000,    49.584,   254.000,  -254.000,1.03500,  2100,   831.000, 0.00000E+0, 2.00000E-1, 0.00000E+0, 0.00000E+0,1.00000,1,  100.0,   831.000,     0.000,   1,1.0000
  2130,'G ',   404.000,    34.960,   200.000,  -200.000,1.03500,  2100,   586.000, 0.00000E+0, 2.00000E-1, 0.00000E+0, 0.00000E+0,1.00000,1,  100.0,   586.000,     0.000,   1,1.0000
  2130,'H ',   273.000,    23.624,   250.000,  -250.000,1.03500,  2100,   396.000, 0.00000E+0, 2.00000E-1, 0.00000E+0, 0.00000E+0,1.00000,1,  100.0,   396.000,     0.000,   1,1.0000
  2130,'S ',    79.000,     6.836,    86.000,   -86.000,1.03500,  2100,   115.000, 0.00000E+0, 2.00000E-1, 0.00000E+0, 0.00000E+0,1.00000,1,  100.0,   115.000,     0.000,   1,1.0000,    ,      ,    ,      ,    ,      ,1, 1.0000
  2233,'DG',   285.000,   108.036,   304.000,  -118.000,1.00500,  2203,  1035.000, 0.00000E+0, 2.00000E-1, 0.00000E+0, 0.00000E+0,1.00000,1,  100.0,  1035.000,     0.000,   1,1.0000
  2233,'EG',   506.000,   191.811,   611.000,  -181.000,1.00500,  2203,  1837.000, 0.00000E+0, 2.00000E-1, 0.00000E+0, 0.00000E+0,1.00000,1,  100.0,  1837.000,     0.000,   1,1.0000
  2233,'TG',   202.000,    76.573,   206.000,  -155.000,1.00500,  2203,   733.000, 0.00000E+0, 2.00000E-1, 0.00000E+0, 0.00000E+0,1.00000,1,  100.0,   733.000,     0.000,   1,1.0000
  2332,'S ',   878.000,    42.155,   590.000,  -364.000,1.03500,  2302,  1333.000, 0.00000E+0, 2.00000E-1, 0.00000E+0, 0.00000E+0,1.00000,1,  100.0,  1333.000,     0.000,   1,1.0000,    ,      ,    ,      ,    ,      ,1, 1.0000
  2431,'S ',   500.000,   -45.458,   800.000,  -800.000,1.05000,     0,  1666.000, 0.00000E+0, 2.00000E-1, 0.00000E+0, 0.00000E+0,1.00000,1,  100.0,  1666.000,     0.000,   1,1.0000,    ,      ,    ,      ,    ,      ,1, 1.0000
  2434,'S ',   500.000,  -338.086,   500.000,  -500.000,1.02000,     0,  1489.000, 0.00000E+0, 2.00000E-1, 0.00000E+0, 0.00000E+0,1.00000,1,  100.0,  1489.000,     0.000,   1,1.0000,    ,      ,    ,      ,    ,      ,1, 1.0000
  2438,'EG',   503.000,    22.304,   728.000,  -454.000,1.00900,  2408,  2292.000, 0.00000E+0, 2.00000E-1, 0.00000E+0, 0.00000E+0,1.00000,1,  100.0,  2292.000,     0.000,   1,1.0000
  2438,'ND',     0.000,     0.000,     0.500,     0.000,1.00900,  2408,   100.000, 0.00000E+0, 2.00000E-1, 0.00000E+0, 0.00000E+0,1.00000,0,  100.0,     0.000, -1006.000,   1,1.0000
  2438,'RG',  1195.999,    53.033,  1902.000, -1168.000,1.00900,  2408,  5451.000, 0.00000E+0, 2.00000E-1, 0.00000E+0, 0.00000E+0,1.00000,1,  100.0,  5451.000,     0.000,   1,1.0000
  2438,'S ',   251.000,    11.130,   800.000,  -800.000,1.00900,  2408,  1146.000, 0.00000E+0, 2.00000E-1, 0.00000E+0, 0.00000E+0,1.00000,1,  100.0,  1146.000,     0.000,   1,1.0000,    ,      ,    ,      ,    ,      ,1, 1.0000
  2438,'SG',   901.000,    39.952,  2301.000, -1053.000,1.00900,  2408,  4110.000, 0.00000E+0, 2.00000E-1, 0.00000E+0, 0.00000E+0,1.00000,1,  100.0,  4110.000,     0.000,   1,1.0000
  2438,'SH',   233.000,    10.332,   659.000,  -523.000,1.00900,  2408,  1460.000, 0.00000E+0, 2.00000E-1, 0.00000E+0, 0.00000E+0,1.00000,1,  100.0,  1460.000,     0.000,   1,1.0000
  2438,'SW',   704.000,    31.217,   561.000,  -553.000,1.00900,  2408,  3210.000, 0.00000E+0, 2.00000E-1, 0.00000E+0, 0.00000E+0,1.00000,1,  100.0,  3210.000,     0.000,   1,1.0000,    ,      ,    ,      ,    ,      ,1, 1.0000
  2438,'WG',  1276.000,    56.581,  1910.000, -1150.000,1.00900,  2408,  5817.000, 0.00000E+0, 2.00000E-1, 0.00000E+0, 0.00000E+0,1.00000,1,  100.0,  5817.000,     0.000,   1,1.0000
  2439,'S ',  1000.000,  -242.795,   800.000,  -800.000,1.02000,  2409,  1666.000, 0.00000E+0, 2.00000E-1, 0.00000E+0, 0.00000E+0,1.00000,1,  100.0,  1666.000,     0.000,   1,1.0000,    ,      ,    ,      ,    ,      ,1, 1.0000
  2533,'S ',  1899.000,   127.405,  1100.000,  -820.000,1.00900,  2503,  1999.000, 0.00000E+0, 2.00000E-1, 0.00000E+0, 0.00000E+0,1.00000,1,  100.0,  1999.000,     0.000,   1,1.0000,    ,      ,    ,      ,    ,      ,1, 1.0000
  2630,'G ',  2282.000,   184.778,  1346.000, -1346.000,1.00400,  2610,  3947.000, 0.00000E+0, 2.00000E-1, 0.00000E+0, 0.00000E+0,1.00000,1,  100.0,  3947.000,     0.000,   1,1.0000
  2631,'S ',   232.000,    32.062,   350.000,  -350.000,1.01500,  2611,   520.000, 0.00000E+0, 2.00000E-1, 0.00000E+0, 0.00000E+0,1.00000,1,  100.0,   520.000,     0.000,   1,1.0000,    ,      ,    ,      ,    ,      ,1, 1.0000
  2634,'C ',  1537.000,   -17.362,   950.000,  -950.000,1.03000,  2604,  1900.000, 0.00000E+0, 2.00000E-1, 0.00000E+0, 0.00000E+0,1.00000,1,  100.0,  1618.000,     0.000,   1,1.0000
  2637,'H ',    83.000,    40.594,   110.000,  -110.000,1.01357,  2612,   200.000, 0.00000E+0, 2.00000E-1, 0.00000E+0, 0.00000E+0,1.00000,1,  100.0,    87.000,     0.000,   1,1.0000
  2638,'H ',   200.000,     7.743,   100.000,  -100.000,1.01500,  2608,   407.000, 0.00000E+0, 2.00000E-1, 0.00000E+0, 0.00000E+0,1.00000,1,  100.0,   407.000,     0.000,   1,1.0000
  3133,'NG',    31.000,   -12.803,    42.000,   -29.000,0.99272,  3103,    80.000, 0.00000E+0, 2.00000E-1, 0.00000E+0, 0.00000E+0,1.00000,1,  100.0,    62.000,     0.000,   1,1.0000
  3133,'SC',     0.000,     0.000,   500.000,  -500.000,0.99272,  3103,   300.000, 0.00000E+0, 2.00000E-1, 0.00000E+0, 0.00000E+0,1.00000,0,  100.0,     0.100,     0.000,   1,1.0000
  3135,'MG',   206.000,    80.068,   239.000,  -201.000,1.00000,  3105,   541.000, 0.00000E+0, 2.00000E-1, 0.00000E+0, 0.00000E+0,1.00000,1,  100.0,   541.000,     0.000,   1,1.0000
  3135,'NG',    14.000,     5.442,   100.000,   -85.000,1.00000,  3105,    38.000, 0.00000E+0, 2.00000E-1, 0.00000E+0, 0.00000E+0,1.00000,1,  100.0,    38.000,     0.000,   1,1.0000
  3234,'DG',   104.000,    11.910,   101.000,   -75.000,1.01000,  3204,   177.000, 0.00000E+0, 2.00000E-1, 0.00000E+0, 0.00000E+0,1.00000,1,  100.0,   177.000,     0.000,   1,1.0000
  3234,'MG',  2261.000,   258.925,  1244.000, -1234.000,1.01000,  3204,  3853.000, 0.00000E+0, 2.00000E-1, 0.00000E+0, 0.00000E+0,1.00000,1,  100.0,  3853.000,     0.000,   1,1.0000
  3234,'NG',   608.000,    69.627,   382.000,  -212.000,1.01000,  3204,  1037.000, 0.00000E+0, 2.00000E-1, 0.00000E+0, 0.00000E+0,1.00000,1,  100.0,  1037.000,     0.000,   1,1.0000
  3234,'NW',  1021.000,   116.923,   150.000,  -110.000,1.01000,  3204,  1740.000, 0.00000E+0, 2.00000E-1, 0.00000E+0, 0.00000E+0,1.00000,1,  100.0,  1740.000,     0.000,   1,1.0000,    ,      ,    ,      ,    ,      ,1, 1.0000
  3333,'CG',   620.000,   125.088,   398.000,  -226.000,1.00000,  3303,  1012.000, 0.00000E+0, 2.00000E-1, 0.00000E+0, 0.00000E+0,1.00000,1,  100.0,  1012.000,     0.000,   1,1.0000
  3333,'NG',   191.000,    38.535,   202.000,  -143.000,1.00000,  3303,   312.000, 0.00000E+0, 2.00000E-1, 0.00000E+0, 0.00000E+0,1.00000,1,  100.0,   312.000,     0.000,   1,1.0000
  3432,'NP',     0.000,     0.000,  1568.000,  -941.000,1.00000,  3402,  3746.000, 0.00000E+0, 2.00000E-1, 0.00000E+0, 0.00000E+0,1.00000,0,  100.0,  3746.000, -2841.000,   1,1.0000
  3433,'NG',   481.000,    20.255,   231.000,  -175.000,1.00000,  3403,   921.000, 0.00000E+0, 2.00000E-1, 0.00000E+0, 0.00000E+0,1.00000,1,  100.0,   921.000,     0.000,   1,1.0000
  3433,'S ',   745.000,    31.372,   939.000,  -562.000,1.00000,  3403,  1426.000, 0.00000E+0, 2.00000E-1, 0.00000E+0, 0.00000E+0,1.00000,1,  100.0,  1426.000,     0.000,   1,1.0000,    ,      ,    ,      ,    ,      ,1, 1.0000
  3531,'CE',   783.000,    53.706,  1004.000,  -599.000,1.00000,  3501,  1424.000, 0.00000E+0, 2.00000E-1, 0.00000E+0, 0.00000E+0,1.00000,1,  100.0,  1424.000,     0.000,   1,1.0000
  3531,'NE',   293.000,    20.097,   253.000,  -181.000,1.00000,  3501,   533.000, 0.00000E+0, 2.00000E-1, 0.00000E+0, 0.00000E+0,1.00000,1,  100.0,   533.000,     0.000,   1,1.0000
  3531,'NH',    13.000,     0.892,    13.000,   -10.000,1.00000,  3501,    24.000, 0.00000E+0, 2.00000E-1, 0.00000E+0, 0.00000E+0,1.00000,1,  100.0,    24.000,     0.000,   1,1.0000
  3631,'NB',    30.000,   -14.000,    20.000,   -14.000,1.01500,  3601,    96.000, 0.00000E+0, 2.00000E-1, 0.00000E+0, 0.00000E+0,1.00000,1,  100.0,    96.000,     0.000,   1,1.0000
  3631,'NG',    67.000,   -33.035,    74.000,   -34.000,1.01500,  3601,   210.000, 0.00000E+0, 2.00000E-1, 0.00000E+0, 0.00000E+0,1.00000,1,  100.0,   210.000,     0.000,   1,1.0000
  3731,'NH',   222.000,  -188.883,   200.000,  -121.000,1.00000,  3701,   400.000, 0.00000E+0, 2.00000E-1, 0.00000E+0, 0.00000E+0,1.00000,1,  100.0,   243.000,     0.000,   1,1.0000
  3831,'NN',  2108.000,   -40.788,  1175.000,  -980.000,1.04900,  3801,  2323.000, 0.00000E+0, 2.00000E-1, 0.00000E+0, 0.00000E+0,1.00000,1,  100.0,  2323.000,     0.000,   1,1.0000
  3835,'ND',     0.000,     0.000,     0.500,     0.000,1.03500,  3805,   100.000, 0.00000E+0, 2.00000E-1, 0.00000E+0, 0.00000E+0,1.00000,0,  100.0,     0.000,  -510.000,   1,1.0000
  3835,'NG',   229.000,    34.700,   662.000,  -479.000,1.03500,  3805,  2025.000, 0.00000E+0, 2.00000E-1, 0.00000E+0, 0.00000E+0,1.00000,1,  100.0,  2025.000,     0.000,   1,1.0000
  3835,'S ',   150.000,    22.729,   500.000,  -500.000,1.03500,  3805,  1333.000, 0.00000E+0, 2.00000E-1, 0.00000E+0, 0.00000E+0,1.00000,1,  100.0,  1333.000,     0.000,   1,1.0000,    ,      ,    ,      ,    ,      ,1, 1.0000
  3836,'DG',   679.000,    -6.658,   476.000,  -352.000,1.01900,  3806,  1497.000, 0.00000E+0, 2.00000E-1, 0.00000E+0, 0.00000E+0,1.00000,1,  100.0,  1497.000,     0.000,   1,1.0000
  3931,'NB',   235.000,    23.587,   151.000,  -115.000,1.07000,  3921,   567.000, 0.00000E+0, 2.00000E-1, 0.00000E+0, 0.00000E+0,1.00000,1,  100.0,   567.000,     0.000,   1,1.0000
  3931,'NH',  1212.000,   121.646,  1284.000,  -946.000,1.07000,  3921,  2875.000, 0.00000E+0, 2.00000E-1, 0.00000E+0, 0.00000E+0,1.00000,1,  100.0,  2875.000,     0.000,   1,1.0000
  3932,'S ',  1355.000,  -242.344,  1150.000,  -500.000,1.00000,  3902,  1426.000, 0.00000E+0, 2.00000E-1, 0.00000E+0, 0.00000E+0,1.00000,1,  100.0,  1426.000,     0.000,   1,1.0000,    ,      ,    ,      ,    ,      ,1, 1.0000
  3933,'CG',   401.302,    57.058,   363.000,   -82.000,1.02000,     0,   865.000, 0.00000E+0, 2.00000E-1, 0.00000E+0, 0.00000E+0,1.00000,1,  100.0,   865.000,     0.000,   1,1.0000
  3933,'NB',   160.057,    22.757,    77.000,   -55.000,1.02000,     0,   345.000, 0.00000E+0, 2.00000E-1, 0.00000E+0, 0.00000E+0,1.00000,1,  100.0,   345.000,     0.000,   1,1.0000
  3933,'ND',     0.000,     0.000,     0.500,     0.000,1.02000,     0,   100.000, 0.00000E+0, 2.00000E-1, 0.00000E+0, 0.00000E+0,1.00000,0,  100.0,     0.000,  -449.000,   1,1.0000
  3933,'NG',   893.999,   127.111,   500.000,  -307.000,1.02000,     0,  1927.000, 0.00000E+0, 2.00000E-1, 0.00000E+0, 0.00000E+0,1.00000,1,  100.0,  1927.000,     0.000,   1,1.0000
  3933,'NH',  1263.754,   179.684,  1256.000, -1041.000,1.02000,     0,  2774.000, 0.00000E+0, 2.00000E-1, 0.00000E+0, 0.00000E+0,1.00000,1,  100.0,  2724.000,     0.000,   1,1.0000
  3933,'NW',   343.311,    48.813,   200.000,  -200.000,1.02000,     0,   740.000, 0.00000E+0, 2.00000E-1, 0.00000E+0, 0.00000E+0,1.00000,1,  100.0,   740.000,     0.000,   1,1.0000,    ,      ,    ,      ,    ,      ,1, 1.0000
  3933,'S ',   618.423,    87.929,   800.000,  -500.000,1.02000,     0,  1333.000, 0.00000E+0, 2.00000E-1, 0.00000E+0, 0.00000E+0,1.00000,1,  100.0,  1333.000,     0.000,   1,1.0000,    ,      ,    ,      ,    ,      ,1, 1.0000
  4031,'G ',   892.801,  -457.871,   502.000,  -502.000,1.08000,  4001,  2710.000, 0.00000E+0, 2.00000E-1, 0.00000E+0, 0.00000E+0,1.00000,1,  100.0,  2710.000,     0.000,   1,1.0000
  4031,'H ',   313.199,  -160.623,   489.000,  -489.000,1.08000,  4001,   952.000, 0.00000E+0, 2.00000E-1, 0.00000E+0, 0.00000E+0,1.00000,1,  100.0,   952.000,     0.000,   1,1.0000
  4031,'S ',   140.400,   -72.004,   250.000,  -250.000,1.08000,  4001,   427.000, 0.00000E+0, 2.00000E-1, 0.00000E+0, 0.00000E+0,1.00000,1,  100.0,   427.000,     0.000,   1,1.0000,    ,      ,    ,      ,    ,      ,1, 1.0000
  4031,'W ',   208.800,  -107.083,   240.000,  -240.000,1.08000,  4001,   635.000, 0.00000E+0, 2.00000E-1, 0.00000E+0, 0.00000E+0,1.00000,1,  100.0,   635.000,     0.000,   1,1.0000,    ,      ,    ,      ,    ,      ,1, 1.0000
  4035,'C ',   173.700,   -36.925,   255.000,  -255.000,1.08000,  4005,   642.000, 0.00000E+0, 2.00000E-1, 0.00000E+0, 0.00000E+0,1.00000,1,  100.0,   642.000,     0.000,   1,1.0000
  4035,'G ',   448.200,   -95.279,   307.000,  -307.000,1.08000,  4005,  1656.000, 0.00000E+0, 2.00000E-1, 0.00000E+0, 0.00000E+0,1.00000,1,  100.0,  1656.000,     0.000,   1,1.0000
  4035,'H ',   966.600,  -205.480,  1836.000, -1836.000,1.08000,  4005,  3572.000, 0.00000E+0, 2.00000E-1, 0.00000E+0, 0.00000E+0,1.00000,1,  100.0,  3572.000,     0.000,   1,1.0000
  4035,'W ',   697.500,  -148.275,   800.000,  -800.000,1.08000,  4005,  2578.000, 0.00000E+0, 2.00000E-1, 0.00000E+0, 0.00000E+0,1.00000,1,  100.0,  2578.000,     0.000,   1,1.0000,    ,      ,    ,      ,    ,      ,1, 1.0000
  4039,'G ',    77.400,    29.741,   102.000,  -102.000,1.08000,  4009,   150.000, 0.00000E+0, 2.00000E-1, 0.00000E+0, 0.00000E+0,1.00000,1,  100.0,   150.000,     0.000,   1,1.0000
  4039,'H ',  1455.300,   559.199,  1459.000, -1459.000,1.08000,  4009,  2839.000, 0.00000E+0, 2.00000E-1, 0.00000E+0, 0.00000E+0,1.00000,1,  100.0,  2839.000,     0.000,   1,1.0000
  4039,'W ',   712.800,   273.893,   500.000,  -500.000,1.08000,  4009,  1290.000, 0.00000E+0, 2.00000E-1, 0.00000E+0, 0.00000E+0,1.00000,1,  100.0,  1290.000,     0.000,   1,1.0000,    ,      ,    ,      ,    ,      ,1, 1.0000
  4131,'B ',   450.000,    43.493,   150.000,  -150.000,1.12800,  4101,   711.000, 0.00000E+0, 2.00000E-1, 0.00000E+0, 0.00000E+0,1.00000,1,  100.0,   711.000,     0.000,   1,1.0000
  4131,'H ',  7418.700,   717.033,  6482.000, -6482.000,1.12800,  4101, 12613.000, 0.00000E+0, 2.00000E-1, 0.00000E+0, 0.00000E+0,1.00000,1,  100.0, 12613.000,     0.000,   1,1.0000
  4131,'W ',   555.300,    53.671,   120.000,  -120.000,1.12800,  4101,   790.000, 0.00000E+0, 2.00000E-1, 0.00000E+0, 0.00000E+0,1.00000,1,  100.0,   790.000,     0.000,   1,1.0000,    ,      ,    ,      ,    ,      ,1, 1.0000
  4132,'G ',  1854.899,    57.958,  1473.000, -1473.000,1.09600,  4102,  2170.000, 0.00000E+0, 2.00000E-1, 0.00000E+0, 0.00000E+0,1.00000,1,  100.0,  2170.000,     0.000,   1,1.0000
  4132,'H ',  3835.801,   119.852,  2847.000, -2847.000,1.09600,  4102,  5539.000, 0.00000E+0, 2.00000E-1, 0.00000E+0, 0.00000E+0,1.00000,1,  100.0,  5539.000,     0.000,   1,1.0000
  4132,'N ',   900.000,    28.121,   231.000,  -231.000,1.09600,  4102,  1200.000, 0.00000E+0, 2.00000E-1, 0.00000E+0, 0.00000E+0,1.00000,1,  100.0,  1200.000,     0.000,   1,1.0000
  4132,'W ',   270.000,     8.436,   160.000,  -160.000,1.09600,  4102,   400.000, 0.00000E+0, 2.00000E-1, 0.00000E+0, 0.00000E+0,1.00000,1,  100.0,   300.000,     0.000,   1,1.0000,    ,      ,    ,      ,    ,      ,1, 1.0000
  4231,'C ',   999.000,   357.374,   728.000,  -728.000,1.12000,  4201,  1460.000, 0.00000E+0, 2.00000E-1, 0.00000E+0, 0.00000E+0,1.00000,1,  100.0,  1460.000,     0.000,   1,1.0000
  4231,'G ',   664.200,   237.605,   659.000,  -659.000,1.12000,  4201,   970.000, 0.00000E+0, 2.00000E-1, 0.00000E+0, 0.00000E+0,1.00000,1,  100.0,   970.000,     0.000,   1,1.0000
  4231,'H ',  2406.601,   860.917,  1808.000, -1808.000,1.12000,  4201,  3517.000, 0.00000E+0, 2.00000E-1, 0.00000E+0, 0.00000E+0,1.00000,1,  100.0,  3517.000,     0.000,   1,1.0000
  4232,'G ',   348.300,    -3.987,   592.000,  -592.000,1.06000,  4202,   872.000, 0.00000E+0, 2.00000E-1, 0.00000E+0, 0.00000E+0,1.00000,1,  100.0,   872.000,     0.000,   1,1.0000
  4232,'H ',   222.300,    -2.545,   287.000,  -287.000,1.06000,  4202,   558.000, 0.00000E+0, 2.00000E-1, 0.00000E+0, 0.00000E+0,1.00000,1,  100.0,   558.000,     0.000,   1,1.0000
  4232,'W ',   316.800,    -3.627,   108.000,  -108.000,1.06000,  4202,   695.000, 0.00000E+0, 2.00000E-1, 0.00000E+0, 0.00000E+0,1.00000,1,  100.0,   695.000,     0.000,   1,1.0000,    ,      ,    ,      ,    ,      ,1, 1.0000
  5031,'G ',   821.700,   129.179,   605.000,  -605.000,1.05000,  5001,  2650.000, 0.00000E+0, 2.00000E-1, 0.00000E+0, 0.00000E+0,1.00000,1,  100.0,  2650.000,     0.000,   1,1.0000
  5031,'H ',  5976.000,   939.483,  4399.000, -4399.000,1.05000,  5001, 10747.000, 0.00000E+0, 2.00000E-1, 0.00000E+0, 0.00000E+0,1.00000,1,  100.0, 10747.000,     0.000,   1,1.0000
  5032,'C ',  3646.800,   600.936,  2977.000, -2977.000,1.05500,  5002, 13039.000, 0.00000E+0, 2.00000E-1, 0.00000E+0, 0.00000E+0,1.00000,1,  100.0, 13039.000,     0.000,   1,1.0000
  5032,'G ',  2695.500,   444.176,  2200.000, -2200.000,1.05500,  5002,  9636.000, 0.00000E+0, 2.00000E-1, 0.00000E+0, 0.00000E+0,1.00000,1,  100.0,  9636.000,     0.000,   1,1.0000
  5032,'R ',    66.600,    10.975,    54.000,   -54.000,1.05500,  5002,   108.000, 0.00000E+0, 2.00000E-1, 0.00000E+0, 0.00000E+0,1.00000,1,  100.0,   108.000,     0.000,   1,1.0000
  5032,'S ',  2701.800,   445.214,  2205.000, -2205.000,1.05500,  5002,  4410.200, 0.00000E+0, 2.00000E-1, 0.00000E+0, 0.00000E+0,1.00000,1,  100.0,  4410.200,     0.000,   1,1.0000,    ,      ,    ,      ,    ,      ,1, 1.0000
  5032,'W ',   331.200,    54.577,   271.000,  -271.000,1.05500,  5002,   541.000, 0.00000E+0, 2.00000E-1, 0.00000E+0, 0.00000E+0,1.00000,1,  100.0,   541.000,     0.000,   1,1.0000,    ,      ,    ,      ,    ,      ,1, 1.0000
  6132,'B ',    45.000,    -9.449,    20.000,   -20.000,1.03000,  6102,   122.000, 0.00000E+0, 2.00000E-1, 0.00000E+0, 0.00000E+0,1.00000,1,  100.0,   122.000,     0.000,   1,1.0000
  6132,'G ',  1043.100,  -147.000,   147.000,  -147.000,1.03000,  6102,  1272.000, 0.00000E+0, 2.00000E-1, 0.00000E+0, 0.00000E+0,1.00000,1,  100.0,  1272.000,     0.000,   1,1.0000
  6132,'H ',  1992.599,  -418.402,  1072.000, -1072.000,1.03000,  6102,  2541.000, 0.00000E+0, 2.00000E-1, 0.00000E+0, 0.00000E+0,1.00000,1,  100.0,  2541.000,     0.000,   1,1.0000
  6132,'S ',   180.000,   -37.796,    75.000,   -75.000,1.03000,  6102,   395.000, 0.00000E+0, 2.00000E-1, 0.00000E+0, 0.00000E+0,1.00000,1,  100.0,   395.000,     0.000,   1,1.0000,    ,      ,    ,      ,    ,      ,1, 1.0000
  6132,'W ',   503.100,  -105.640,   210.000,  -210.000,1.03000,  6102,   973.000, 0.00000E+0, 2.00000E-1, 0.00000E+0, 0.00000E+0,1.00000,1,  100.0,   973.000,     0.000,   1,1.0000,    ,      ,    ,      ,    ,      ,1, 1.0000
  6231,'C ',   705.150,  -126.483,  1256.000, -1256.000,1.06000,  6201,  2488.000, 0.00000E+0, 2.00000E-1, 0.00000E+0, 0.00000E+0,1.00000,1,  100.0,  2488.000,     0.000,   1,1.0000
  6231,'G ',   225.000,   -40.358,    70.000,   -70.000,1.06000,  6201,   250.000, 0.00000E+0, 2.00000E-1, 0.00000E+0, 0.00000E+0,1.00000,1,  100.0,   250.000,     0.000,   1,1.0000
  6235,'G ',    90.000,    10.348,    64.000,   -64.000,1.05000,  6205,   226.000, 0.00000E+0, 2.00000E-1, 0.00000E+0, 0.00000E+0,1.00000,1,  100.0,   226.000,     0.000,   1,1.0000
  6235,'H ',  1040.400,   119.620,   347.000,  -347.000,1.05000,  6205,  2671.000, 0.00000E+0, 2.00000E-1, 0.00000E+0, 0.00000E+0,1.00000,1,  100.0,  2671.000,     0.000,   1,1.0000
  6235,'W ',   280.800,    32.285,   195.000,  -195.000,1.05000,  6205,   720.000, 0.00000E+0, 2.00000E-1, 0.00000E+0, 0.00000E+0,1.00000,1,  100.0,   720.000,     0.000,   1,1.0000,    ,      ,    ,      ,    ,      ,1, 1.0000
  6333,'C ',  2837.700,   506.609,  1671.000, -1671.000,1.03000,  6303,  4594.000, 0.00000E+0, 2.00000E-1, 0.00000E+0, 0.00000E+0,1.00000,1,  100.0,  4594.000,     0.000,   1,1.0000
  6333,'W ',   919.800,   164.210,   350.000,  -350.000,1.03000,  6303,  1489.000, 0.00000E+0, 2.00000E-1, 0.00000E+0, 0.00000E+0,1.00000,1,  100.0,  1489.000,     0.000,   1,1.0000,    ,      ,    ,      ,    ,      ,1, 1.0000
  6335,'C ',  2274.300,   654.150,   968.000,  -968.000,1.06000,  6305,  3000.000, 0.00000E+0, 2.00000E-1, 0.00000E+0, 0.00000E+0,1.00000,1,  100.0,  2660.000,     0.000,   1,1.0000
  6335,'G ',   295.200,    84.908,   330.000,  -330.000,1.06000,  6305,   418.000, 0.00000E+0, 2.00000E-1, 0.00000E+0, 0.00000E+0,1.00000,1,  100.0,   418.000,     0.000,   1,1.0000
  6335,'H ',   259.200,    74.553,   406.000,  -406.000,1.06000,  6305,   400.000, 0.00000E+0, 2.00000E-1, 0.00000E+0, 0.00000E+0,1.00000,1,  100.0,   303.000,     0.000,   1,1.0000
  6433,'C ',   194.000,    34.877,   283.000,  -283.000,1.11000,  6403,   391.000, 0.00000E+0, 2.00000E-1, 0.00000E+0, 0.00000E+0,1.00000,1,  100.0,   391.000,     0.000,   1,1.0000
  6433,'E ',   372.000,    59.000,    59.000,   -59.000,1.11000,  6403,   751.000, 0.00000E+0, 2.00000E-1, 0.00000E+0, 0.00000E+0,1.00000,1,  100.0,   751.000,     0.000,   1,1.0000
  6433,'G ',   679.000,   122.071,   536.000,  -536.000,1.11000,  6403,  1369.000, 0.00000E+0, 2.00000E-1, 0.00000E+0, 0.00000E+0,1.00000,1,  100.0,  1369.000,     0.000,   1,1.0000
  6433,'W ',    75.000,    13.484,    50.000,   -50.000,1.11000,  6403,   152.000, 0.00000E+0, 2.00000E-1, 0.00000E+0, 0.00000E+0,1.00000,1,  100.0,   152.000,     0.000,   1,1.0000,    ,      ,    ,      ,    ,      ,1, 1.0000
  6533,'C ',  1318.501,   132.033,  1924.000, -1924.000,1.06500,  6503,  3276.000, 0.00000E+0, 2.00000E-1, 0.00000E+0, 0.00000E+0,1.00000,1,  100.0,  3276.000,     0.000,   1,1.0000
  6533,'G ',  1213.201,   121.488,   880.000,  -880.000,1.06500,  6503,  3239.000, 0.00000E+0, 2.00000E-1, 0.00000E+0, 0.00000E+0,1.00000,1,  100.0,  3239.000,     0.000,   1,1.0000
  6533,'H ',    90.000,     9.012,    75.000,   -75.000,1.06500,  6503,   275.000, 0.00000E+0, 2.00000E-1, 0.00000E+0, 0.00000E+0,1.00000,1,  100.0,   275.000,     0.000,   1,1.0000
  6533,'S ',   566.100,    56.688,   500.000,  -500.000,1.06500,  6503,  1407.000, 0.00000E+0, 2.00000E-1, 0.00000E+0, 0.00000E+0,1.00000,1,  100.0,  1407.000,     0.000,   1,1.0000,    ,      ,    ,      ,    ,      ,1, 1.0000
  6533,'W ',   157.500,    15.772,    20.000,   -20.000,1.06500,  6503,   391.000, 0.00000E+0, 2.00000E-1, 0.00000E+0, 0.00000E+0,1.00000,1,  100.0,   391.000,     0.000,   1,1.0000,    ,      ,    ,      ,    ,      ,1, 1.0000
  7031,'C ',  1105.199,   299.172,  1419.000, -1419.000,1.02000,  7001,  3127.000, 0.00000E+0, 2.00000E-1, 0.00000E+0, 0.00000E+0,1.00000,1,  100.0,  3127.000,     0.000,   1,1.0000
  7031,'G ',  2242.802,   607.116,  2092.000, -2092.000,1.02000,  7001,  6346.000, 0.00000E+0, 2.00000E-1, 0.00000E+0, 0.00000E+0,1.00000,1,  100.0,  6346.000,     0.000,   1,1.0000
  7031,'P ',   123.300,    33.377,   175.000,  -175.000,1.02000,  7001,   509.000, 0.00000E+0, 2.00000E-1, 0.00000E+0, 0.00000E+0,1.00000,1,  100.0,   509.000,  -509.000,   1,1.0000
  7031,'SC',     0.000,     0.000,  1000.000, -1000.000,1.02000,  7001,   100.000, 0.00000E+0, 2.00000E-1, 0.00000E+0, 0.00000E+0,1.00000,0,  100.0,     0.100,     0.000,   1,1.0000
  7031,'W ',  1098.000,   297.224,  1000.000, -1000.000,1.02000,  7001,  3106.000, 0.00000E+0, 2.00000E-1, 0.00000E+0, 0.00000E+0,1.00000,1,  100.0,  3106.000,     0.000,   1,1.0000,    ,      ,    ,      ,    ,      ,1, 1.0000
  7032,'C ',  1057.500,    33.708,   826.000,  -826.000,1.01500,  7002,  1821.000, 0.00000E+0, 2.00000E-1, 0.00000E+0, 0.00000E+0,1.00000,1,  100.0,  1821.000,     0.000,   1,1.0000
  7032,'G ',   861.300,    27.454,   489.000,  -489.000,1.01500,  7002,  1483.000, 0.00000E+0, 2.00000E-1, 0.00000E+0, 0.00000E+0,1.00000,1,  100.0,  1483.000,     0.000,   1,1.0000
  7032,'H ',   390.600,    12.451,   346.000,  -346.000,1.01500,  7002,   672.000, 0.00000E+0, 2.00000E-1, 0.00000E+0, 0.00000E+0,1.00000,1,  100.0,   672.000,     0.000,   1,1.0000
  7032,'S ',   428.400,    13.655,   230.000,  -230.000,1.01500,  7002,   738.000, 0.00000E+0, 2.00000E-1, 0.00000E+0, 0.00000E+0,1.00000,1,  100.0,   738.000,     0.000,   1,1.0000,    ,      ,    ,      ,    ,      ,1, 1.0000
  8033,'H ',  1182.000,   259.801,   786.000,  -786.000,1.07500,  8003,  1394.000, 0.00000E+0, 2.00000E-1, 0.00000E+0, 0.00000E+0,1.00000,1,  100.0,  1394.000,     0.000,   1,1.0000
  8034,'G ',  2946.000,   419.602,  1280.000, -1280.000,1.00000,  8004,  3754.000, 0.00000E+0, 2.00000E-1, 0.00000E+0, 0.00000E+0,1.00000,1,  100.0,  3754.000,     0.000,   1,1.0000
  8034,'H ',   427.000,    60.818,   344.000,  -344.000,1.00000,  8004,   544.000, 0.00000E+0, 2.00000E-1, 0.00000E+0, 0.00000E+0,1.00000,1,  100.0,   544.000,     0.000,   1,1.0000
 0 /End of Generator data, Begin Branch data
  1001,   1201,'1 ', 1.77000E-3, 3.16900E-2,   3.34460,    0.00,    0.00,    0.00,  0.00000,  0.00000,  0.00000,  0.00000,1,1,   0.00,   1,1.0000
  1001,   1202,'9 ', 1.08000E-2, 9.65000E-2,   0.32960,    0.00,    0.00,    0.00,  0.00000,  0.00000,  0.00000,  0.00000,1,1,   0.00,   1,1.0000
  1002,   1004,'1 ', 5.00000E-4, 5.30000E-3,   0.08820,    0.00,    0.00,    0.00,  0.00000,  0.00000,  0.00000,  0.00000,1,1,   0.00,   1,1.0000
  1002,   1102,'1 ', 1.79000E-3, 1.98800E-2,   2.57600,    0.00,    0.00,    0.00,  0.00000,  0.00000,  0.00000,  0.00000,1,1,   0.00,   1,1.0000
  1002,   1102,'2 ', 1.79000E-3, 1.98800E-2,   2.57600,    0.00,    0.00,    0.00,  0.00000,  0.00000,  0.00000,  0.00000,1,1,   0.00,   1,1.0000
  1002,   6506,'1 ', 4.80000E-3, 4.36000E-2,   0.70780,    0.00,    0.00,    0.00,  0.00000,  0.00000,  0.00000,  0.00000,1,2,   0.00,   1,1.0000
  1004,   7001,'1 ', 8.11000E-3, 1.36900E-1,   2.43480,    0.00,    0.00,    0.00,  0.00000,  0.00000,  0.00000,  0.00000,1,2,   0.00,   1,1.0000
  1004,   7002,'1 ', 9.77000E-3, 1.10000E-1,   2.00000,    0.00,    0.00,    0.00,  0.00000,  0.00000,  0.00000,  0.00000,1,2,   0.00,   1,1.0000
  1101,   1401,'1 ', 2.80000E-3, 2.11000E-2,   1.01940,    0.00,    0.00, 1630.00,  0.00000,  0.00000,  0.00000,  0.00000,1,1,   0.00,   1,1.0000
  1101,   1401,'2 ', 2.80000E-3, 2.11000E-2,   1.01940,    0.00,    0.00, 1630.00,  0.00000,  0.00000,  0.00000,  0.00000,1,1,   0.00,   1,1.0000
  1201,   1202,'1 ', 7.70000E-4, 5.36000E-3,   1.39842,    0.00,    0.00,    0.00,  0.00000,  0.00000,  0.00000,  0.00000,1,1,   0.00,   1,1.0000
  1201,   1402,'1 ', 1.79000E-3, 2.59200E-2,   3.39220,    0.00,    0.00,    0.00,  0.00000,  0.00000,  0.00000,  0.00000,1,1,   0.00,   1,1.0000
  1201,   2901,'1 ', 2.07000E-3, 1.36900E-2,   3.95160,    0.00,    0.00,    0.00,  0.00000,  0.00000,  0.00000,  0.00000,1,1,   0.00,   1,1.0000
  1202,   1302,'1 ', 2.80000E-3, 2.11000E-2,   1.01940,    0.00,    0.00, 1630.00,  0.00000,  0.00000,  0.00000,  0.00000,1,1,   0.00,   1,1.0000
  1202,   1402,'1 ', 2.41000E-3, 3.48900E-2,   4.86560,    0.00,    0.00,    0.00,  0.00000,  0.00000,  0.00000,  0.00000,1,1,   0.00,   1,1.0000
  1301,   1302,'1 ', 2.80000E-3, 2.11000E-2,   1.01940,    0.00,    0.00, 1630.00,  0.00000,  0.00000,  0.00000,  0.00000,1,1,   0.00,   1,1.0000
  1301,   1402,'1 ', 2.80000E-3, 2.11000E-2,   1.01940,    0.00,    0.00, 1630.00,  0.00000,  0.00000,  0.00000,  0.00000,1,1,   0.00,   1,1.0000
  1301,   1402,'2 ', 6.20000E-3, 6.73000E-2,   1.11560,    0.00,    0.00,    0.00,  0.00000,  0.00000,  0.00000,  0.00000,1,1,   0.00,   1,1.0000
  1301,   2603,'1 ', 1.79000E-3, 2.52400E-2,   0.53546,    0.00,    0.00,    0.00,  0.00000,  0.00000,  0.00000,  0.00000,1,2,   0.00,   1,1.0000
  1301,   2901,'1 ', 1.08000E-2, 9.65000E-2,   0.32960,    0.00,    0.00,    0.00,  0.00000,  0.00000,  0.00000,  0.00000,1,1,   0.00,   1,1.0000
  1303,   6507,'1 ', 8.11000E-3, 1.36900E-1,   1.11560,    0.00,    0.00,    0.00,  0.00000,  0.00000,  0.00000,  0.00000,1,2,   0.00,   1,1.0000
  1401,   1402,'1 ', 4.00000E-4, 9.60000E-3,   0.90380,    0.00,    0.00,    0.00,  0.00000,  0.00000,  0.00000,  0.00000,1,1,   0.00,   1,1.0000
  1401,   1402,'2 ', 4.00000E-4, 9.60000E-3,   0.90380,    0.00,    0.00,    0.00,  0.00000,  0.00000,  0.00000,  0.00000,1,1,   0.00,   1,1.0000
  1401,   2301,'1 ', 2.59000E-3, 2.96700E-2,   2.15300,    0.00,    0.00, 1800.00,  0.00000,  0.00000,  0.00000,  0.00000,1,1,   0.00,   1,1.0000
  1401,   2400,'1 ', 2.59000E-3, 2.96700E-2,   2.15300,    0.00,    0.00, 1800.00,  0.00000,  0.00000,  0.00000,  0.00000,1,1,   0.00,   1,1.0000
  1403,   2100,'1 ', 8.45000E-3, 7.03400E-2,   0.15954,    0.00,    0.00, 1160.00,  0.00000,  0.00000,  0.00000,  0.00000,1,1,   0.00,   1,1.0000
  2000,   2202,'1 ', 1.38000E-3, 5.39900E-2,   0.15252,    0.00,  986.00,  888.00,  0.00000,  0.00000,  0.00000,  0.00000,1,1,   0.00,   1,1.0000
  2000,   2302,'1 ', 1.38000E-3, 5.39900E-2,   0.15252,    0.00,  986.00,  888.00,  0.00000,  0.00000,  0.00000,  0.00000,1,1,   0.00,   1,1.0000
  2100,   2302,'1 ', 8.45000E-3, 7.03400E-2,   0.15954,    0.00,    0.00, 1160.00,  0.00000,  0.00000,  0.00000,  0.00000,1,1,   0.00,   1,1.0000
...